testcases/gridlabd/pegase_2869_T/case2869pegase.glm

object load {
	name bus3;
	phases ABC;
	nominal_voltage 127.017 kV;
	bustype PQ;
	voltage_A 129.0462-21.7978d kV;
	voltage_B 129.0462-141.7978d kV;
	voltage_C 129.0462+98.2022d kV;
	constant_power_A 50.3333+16.2667j MVA;
	constant_power_B 50.3333+16.2667j MVA;
	constant_power_C 50.3333+16.2667j MVA;
	constant_impedance_A 0.0000-10319.8294j Ohm;
	constant_impedance_B 0.0000-10319.8294j Ohm;
	constant_impedance_C 0.0000-10319.8294j Ohm;
}
object load {
	name bus4;
	phases ABC;
	nominal_voltage 127.017 kV;
	bustype PQ;
	voltage_A 130.2937-7.0092d kV;
	voltage_B 130.2937-127.0092d kV;
	voltage_C 130.2937+112.9908d kV;
	constant_power_A 57.1367+7.8000j MVA;
	constant_power_B 57.1367+7.8000j MVA;
	constant_power_C 57.1367+7.8000j MVA;
	constant_impedance_A 0.0000-23047.6190j Ohm;
	constant_impedance_B 0.0000-23047.6190j Ohm;
	constant_impedance_C 0.0000-23047.6190j Ohm;
}
object load {
	name bus10;
	phases ABC;
	nominal_voltage 127.017 kV;
	bustype PQ;
	voltage_A 131.8403-24.3117d kV;
	voltage_B 131.8403-144.3117d kV;
	voltage_C 131.8403+95.6883d kV;
	constant_power_A 44.6667+8.2333j MVA;
	constant_power_B 44.6667+8.2333j MVA;
	constant_power_C 44.6667+8.2333j MVA;
	constant_impedance_A 0.0000-3890.6752j Ohm;
	constant_impedance_B 0.0000-3890.6752j Ohm;
	constant_impedance_C 0.0000-3890.6752j Ohm;
}
object load {
	name bus15;
	phases ABC;
	nominal_voltage 127.017 kV;
	bustype PQ;
	voltage_A 130.1009-48.2866d kV;
	voltage_B 130.1009-168.2866d kV;
	voltage_C 130.1009+71.7134d kV;
	constant_power_A 19.8900+8.9000j MVA;
	constant_power_B 19.8900+8.9000j MVA;
	constant_power_C 19.8900+8.9000j MVA;
	constant_impedance_A 0.0000-3769.4704j Ohm;
	constant_impedance_B 0.0000-3769.4704j Ohm;
	constant_impedance_C 0.0000-3769.4704j Ohm;
}
object load {
	name bus21;
	phases ABC;
	nominal_voltage 127.017 kV;
	bustype PQ;
	voltage_A 131.5442-21.9866d kV;
	voltage_B 131.5442-141.9866d kV;
	voltage_C 131.5442+98.0134d kV;
	constant_power_A 53.7333+13.1000j MVA;
	constant_power_B 53.7333+13.1000j MVA;
	constant_power_C 53.7333+13.1000j MVA;
	constant_impedance_A 0.0000-1576.0339j Ohm;
	constant_impedance_B 0.0000-1576.0339j Ohm;
	constant_impedance_C 0.0000-1576.0339j Ohm;
}
object load {
	name bus22;
	phases ABC;
	nominal_voltage 127.017 kV;
	bustype PQ;
	voltage_A 131.1911-18.5118d kV;
	voltage_B 131.1911-138.5118d kV;
	voltage_C 131.1911+101.4882d kV;
	constant_impedance_A 0.0000-56941.1765j Ohm;
	constant_impedance_B 0.0000-56941.1765j Ohm;
	constant_impedance_C 0.0000-56941.1765j Ohm;
}
object load {
	name bus26;
	phases ABC;
	nominal_voltage 219.393 kV;
	bustype PQ;
	voltage_A 226.5962-3.3035d kV;
	voltage_B 226.5962-123.3035d kV;
	voltage_C 226.5962+116.6965d kV;
	constant_power_A 55.7667+18.2667j MVA;
	constant_power_B 55.7667+18.2667j MVA;
	constant_power_C 55.7667+18.2667j MVA;
	constant_impedance_A 0.0000-1306.3145j Ohm;
	constant_impedance_B 0.0000-1306.3145j Ohm;
	constant_impedance_C 0.0000-1306.3145j Ohm;
}
object load {
	name bus29;
	phases ABC;
	nominal_voltage 219.393 kV;
	bustype PQ;
	voltage_A 218.9335-13.7428d kV;
	voltage_B 218.9335-133.7428d kV;
	voltage_C 218.9335+106.2572d kV;
	constant_power_A 50.9667+16.4667j MVA;
	constant_power_B 50.9667+16.4667j MVA;
	constant_power_C 50.9667+16.4667j MVA;
	constant_impedance_A 0.0000-5222.4231j Ohm;
	constant_impedance_B 0.0000-5222.4231j Ohm;
	constant_impedance_C 0.0000-5222.4231j Ohm;
}
object node {
	name bus32;
	phases ABC;
	nominal_voltage 127.017 kV;
	bustype PQ;
	voltage_A 127.8053-42.3618d kV;
	voltage_B 127.8053-162.3618d kV;
	voltage_C 127.8053+77.6382d kV;
}
object node {
	name bus33;
	phases ABC;
	nominal_voltage 127.017 kV;
	bustype PQ;
	voltage_A 131.0700-37.9465d kV;
	voltage_B 131.0700-157.9465d kV;
	voltage_C 131.0700+82.0535d kV;
}
object load {
	name bus38;
	phases ABC;
	nominal_voltage 127.017 kV;
	bustype PQ;
	voltage_A 130.6341+26.3203d kV;
	voltage_B 130.6341-93.6797d kV;
	voltage_C 130.6341+146.3203d kV;
	constant_power_A 14.2500+4.2667j MVA;
	constant_power_B 14.2500+4.2667j MVA;
	constant_power_C 14.2500+4.2667j MVA;
	constant_impedance_A 0.0000-3639.0977j Ohm;
	constant_impedance_B 0.0000-3639.0977j Ohm;
	constant_impedance_C 0.0000-3639.0977j Ohm;
}
object node {
	name bus39;
	phases ABC;
	nominal_voltage 86.603 kV;
	bustype PQ;
	voltage_A 87.0833-37.6563d kV;
	voltage_B 87.0833-157.6563d kV;
	voltage_C 87.0833+82.3437d kV;
}
object load {
	name bus42;
	phases ABC;
	nominal_voltage 219.393 kV;
	bustype PQ;
	voltage_A 229.7956-48.4805d kV;
	voltage_B 229.7956-168.4805d kV;
	voltage_C 229.7956+71.5195d kV;
	constant_power_A 6.9400+2.6333j MVA;
	constant_power_B 6.9400+2.6333j MVA;
	constant_power_C 6.9400+2.6333j MVA;
	constant_impedance_A 0.0000-5370.0260j Ohm;
	constant_impedance_B 0.0000-5370.0260j Ohm;
	constant_impedance_C 0.0000-5370.0260j Ohm;
}
object load {
	name bus44;
	phases ABC;
	nominal_voltage 127.017 kV;
	bustype PQ;
	voltage_A 132.7675-22.2092d kV;
	voltage_B 132.7675-142.2092d kV;
	voltage_C 132.7675+97.7908d kV;
	constant_impedance_A 0.0000-6657.4966j Ohm;
	constant_impedance_B 0.0000-6657.4966j Ohm;
	constant_impedance_C 0.0000-6657.4966j Ohm;
}
object node {
	name bus51;
	phases ABC;
	nominal_voltage 127.017 kV;
	bustype PQ;
	voltage_A 128.5387-47.4390d kV;
	voltage_B 128.5387-167.4390d kV;
	voltage_C 128.5387+72.5610d kV;
}
object load {
	name bus52;
	phases ABC;
	nominal_voltage 86.603 kV;
	bustype PQ;
	voltage_A 87.7496+0.9638d kV;
	voltage_B 87.7496-119.0362d kV;
	voltage_C 87.7496+120.9638d kV;
	constant_power_A 42.5333+10.6000j MVA;
	constant_power_B 42.5333+10.6000j MVA;
	constant_power_C 42.5333+10.6000j MVA;
	constant_impedance_A 0.0000-1097.0258j Ohm;
	constant_impedance_B 0.0000-1097.0258j Ohm;
	constant_impedance_C 0.0000-1097.0258j Ohm;
}
object load {
	name bus53;
	phases ABC;
	nominal_voltage 127.017 kV;
	bustype PQ;
	voltage_A 134.7045-9.1057d kV;
	voltage_B 134.7045-129.1057d kV;
	voltage_C 134.7045+110.8943d kV;
	constant_power_A 16.2167+5.3667j MVA;
	constant_power_B 16.2167+5.3667j MVA;
	constant_power_C 16.2167+5.3667j MVA;
	constant_impedance_A 0.0000-6778.7115j Ohm;
	constant_impedance_B 0.0000-6778.7115j Ohm;
	constant_impedance_C 0.0000-6778.7115j Ohm;
}
object load {
	name bus58;
	phases ABC;
	nominal_voltage 219.393 kV;
	bustype PQ;
	voltage_A 218.3780-21.5870d kV;
	voltage_B 218.3780-141.5870d kV;
	voltage_C 218.3780+98.4130d kV;
	constant_impedance_A 0.0000-62510.8225j Ohm;
	constant_impedance_B 0.0000-62510.8225j Ohm;
	constant_impedance_C 0.0000-62510.8225j Ohm;
}
object load {
	name bus59;
	phases ABC;
	nominal_voltage 127.017 kV;
	bustype PQ;
	voltage_A 131.0275-23.7936d kV;
	voltage_B 131.0275-143.7936d kV;
	voltage_C 131.0275+96.2064d kV;
	constant_power_A 39.7333+6.9000j MVA;
	constant_power_B 39.7333+6.9000j MVA;
	constant_power_C 39.7333+6.9000j MVA;
	constant_impedance_A 0.0000-14622.3565j Ohm;
	constant_impedance_B 0.0000-14622.3565j Ohm;
	constant_impedance_C 0.0000-14622.3565j Ohm;
}
object load {
	name bus69;
	phases ABC;
	nominal_voltage 86.603 kV;
	bustype PQ;
	voltage_A 87.6243-0.3093d kV;
	voltage_B 87.6243-120.3093d kV;
	voltage_C 87.6243+119.6907d kV;
	constant_power_A 20.9567+6.8333j MVA;
	constant_power_B 20.9567+6.8333j MVA;
	constant_power_C 20.9567+6.8333j MVA;
	constant_impedance_A 0.0000-19565.2174j Ohm;
	constant_impedance_B 0.0000-19565.2174j Ohm;
	constant_impedance_C 0.0000-19565.2174j Ohm;
}
object load {
	name bus71;
	phases ABC;
	nominal_voltage 86.603 kV;
	bustype PQ;
	voltage_A 89.8746+3.1980d kV;
	voltage_B 89.8746-116.8020d kV;
	voltage_C 89.8746+123.1980d kV;
	constant_power_A 42.1000+14.1333j MVA;
	constant_power_B 42.1000+14.1333j MVA;
	constant_power_C 42.1000+14.1333j MVA;
	constant_impedance_A 0.0000-407.3135j Ohm;
	constant_impedance_B 0.0000-407.3135j Ohm;
	constant_impedance_C 0.0000-407.3135j Ohm;
}
object load {
	name bus72;
	phases ABC;
	nominal_voltage 127.017 kV;
	bustype PQ;
	voltage_A 128.2397-40.5517d kV;
	voltage_B 128.2397-160.5517d kV;
	voltage_C 128.2397+79.4483d kV;
	constant_power_A 2.3033-1.5333j MVA;
	constant_power_B 2.3033-1.5333j MVA;
	constant_power_C 2.3033-1.5333j MVA;
	constant_impedance_A 0.0000-8417.3913j Ohm;
	constant_impedance_B 0.0000-8417.3913j Ohm;
	constant_impedance_C 0.0000-8417.3913j Ohm;
}
object load {
	name bus75;
	phases ABC;
	nominal_voltage 127.017 kV;
	bustype PQ;
	voltage_A 130.1191-52.4980d kV;
	voltage_B 130.1191-172.4980d kV;
	voltage_C 130.1191+67.5020d kV;
	constant_power_A 12.9133+2.0333j MVA;
	constant_power_B 12.9133+2.0333j MVA;
	constant_power_C 12.9133+2.0333j MVA;
	constant_impedance_A 0.0000-41367.5214j Ohm;
	constant_impedance_B 0.0000-41367.5214j Ohm;
	constant_impedance_C 0.0000-41367.5214j Ohm;
}
object load {
	name bus76;
	phases ABC;
	nominal_voltage 127.017 kV;
	bustype PQ;
	voltage_A 130.6420+26.3299d kV;
	voltage_B 130.6420-93.6701d kV;
	voltage_C 130.6420+146.3299d kV;
	constant_power_A 7.3767+3.5667j MVA;
	constant_power_B 7.3767+3.5667j MVA;
	constant_power_C 7.3767+3.5667j MVA;
	constant_impedance_A 0.0000-3406.0521j Ohm;
	constant_impedance_B 0.0000-3406.0521j Ohm;
	constant_impedance_C 0.0000-3406.0521j Ohm;
}
object load {
	name bus77;
	phases ABC;
	nominal_voltage 127.017 kV;
	bustype PQ;
	voltage_A 128.6767-48.8818d kV;
	voltage_B 128.6767-168.8818d kV;
	voltage_C 128.6767+71.1182d kV;
	constant_impedance_A 0.0000-66301.3699j Ohm;
	constant_impedance_B 0.0000-66301.3699j Ohm;
	constant_impedance_C 0.0000-66301.3699j Ohm;
}
object load {
	name bus89;
	phases ABC;
	nominal_voltage 219.393 kV;
	bustype PQ;
	voltage_A 218.5157-4.6011d kV;
	voltage_B 218.5157-124.6011d kV;
	voltage_C 218.5157+115.3989d kV;
	constant_impedance_A 1398.0194-31810.7250j Ohm;
	constant_impedance_B 1398.0194-31810.7250j Ohm;
	constant_impedance_C 1398.0194-31810.7250j Ohm;
}
object load {
	name bus90;
	phases ABC;
	nominal_voltage 127.017 kV;
	bustype PQ;
	voltage_A 132.4699-27.6296d kV;
	voltage_B 132.4699-147.6296d kV;
	voltage_C 132.4699+92.3704d kV;
	constant_power_A 121.0833+38.4633j MVA;
	constant_power_B 121.0833+38.4633j MVA;
	constant_power_C 121.0833+38.4633j MVA;
	constant_impedance_A 0.0000-12253.1646j Ohm;
	constant_impedance_B 0.0000-12253.1646j Ohm;
	constant_impedance_C 0.0000-12253.1646j Ohm;
}
object load {
	name bus91;
	phases ABC;
	nominal_voltage 86.603 kV;
	bustype PQ;
	voltage_A 87.6039+0.5775d kV;
	voltage_B 87.6039-119.4225d kV;
	voltage_C 87.6039+120.5775d kV;
	constant_impedance_A 0.0000-1125000.0000j Ohm;
	constant_impedance_B 0.0000-1125000.0000j Ohm;
	constant_impedance_C 0.0000-1125000.0000j Ohm;
}
object load {
	name bus96;
	phases ABC;
	nominal_voltage 127.017 kV;
	bustype PQ;
	voltage_A 131.4376-15.6250d kV;
	voltage_B 131.4376-135.6250d kV;
	voltage_C 131.4376+104.3750d kV;
	constant_power_A -2.8000+9.5533j MVA;
	constant_power_B -2.8000+9.5533j MVA;
	constant_power_C -2.8000+9.5533j MVA;
	constant_impedance_A 0.0000-13868.1948j Ohm;
	constant_impedance_B 0.0000-13868.1948j Ohm;
	constant_impedance_C 0.0000-13868.1948j Ohm;
}
object load {
	name bus113;
	phases ABC;
	nominal_voltage 219.393 kV;
	bustype PQ;
	voltage_A 226.0942-14.2604d kV;
	voltage_B 226.0942-134.2604d kV;
	voltage_C 226.0942+105.7396d kV;
	constant_impedance_A 0.0000-22104.1463j Ohm;
	constant_impedance_B 0.0000-22104.1463j Ohm;
	constant_impedance_C 0.0000-22104.1463j Ohm;
}
object load {
	name bus115;
	phases ABC;
	nominal_voltage 127.017 kV;
	bustype PQ;
	voltage_A 135.3590-19.8104d kV;
	voltage_B 135.3590-139.8104d kV;
	voltage_C 135.3590+100.1896d kV;
	constant_impedance_A 0.0000-11496.4371j Ohm;
	constant_impedance_B 0.0000-11496.4371j Ohm;
	constant_impedance_C 0.0000-11496.4371j Ohm;
}
object load {
	name bus118;
	phases ABC;
	nominal_voltage 219.393 kV;
	bustype PQ;
	voltage_A 224.2011-11.3914d kV;
	voltage_B 224.2011-131.3914d kV;
	voltage_C 224.2011+108.6086d kV;
	constant_power_A 234.8433-11.7767j MVA;
	constant_power_B 234.8433-11.7767j MVA;
	constant_power_C 234.8433-11.7767j MVA;
	constant_impedance_A 0.0000-11020.5166j Ohm;
	constant_impedance_B 0.0000-11020.5166j Ohm;
	constant_impedance_C 0.0000-11020.5166j Ohm;
}
object node {
	name bus124;
	phases ABC;
	nominal_voltage 127.017 kV;
	bustype PQ;
	voltage_A 137.0884+8.3674d kV;
	voltage_B 137.0884-111.6326d kV;
	voltage_C 137.0884+128.3674d kV;
}
object load {
	name bus128;
	phases ABC;
	nominal_voltage 127.017 kV;
	bustype PQ;
	voltage_A 129.5720-16.0886d kV;
	voltage_B 129.5720-136.0886d kV;
	voltage_C 129.5720+103.9114d kV;
	constant_power_A 7.9100+4.2333j MVA;
	constant_power_B 7.9100+4.2333j MVA;
	constant_power_C 7.9100+4.2333j MVA;
	constant_impedance_A 0.0000-93076.9231j Ohm;
	constant_impedance_B 0.0000-93076.9231j Ohm;
	constant_impedance_C 0.0000-93076.9231j Ohm;
}
object load {
	name bus130;
	phases ABC;
	nominal_voltage 219.393 kV;
	bustype PQ;
	voltage_A 233.2087-46.6230d kV;
	voltage_B 233.2087-166.6230d kV;
	voltage_C 233.2087+73.3770d kV;
	constant_impedance_A 8.5732-3024.0167j Ohm;
	constant_impedance_B 8.5732-3024.0167j Ohm;
	constant_impedance_C 8.5732-3024.0167j Ohm;
}
object load {
	name bus132;
	phases ABC;
	nominal_voltage 219.393 kV;
	bustype PQ;
	voltage_A 234.2780-43.2783d kV;
	voltage_B 234.2780-163.2783d kV;
	voltage_C 234.2780+76.7217d kV;
	constant_impedance_A 0.0000-6750.8181j Ohm;
	constant_impedance_B 0.0000-6750.8181j Ohm;
	constant_impedance_C 0.0000-6750.8181j Ohm;
}
object load {
	name bus133;
	phases ABC;
	nominal_voltage 86.603 kV;
	bustype PQ;
	voltage_A 88.2437+2.8235d kV;
	voltage_B 88.2437-117.1765d kV;
	voltage_C 88.2437+122.8235d kV;
	constant_power_A 12.7133+4.1667j MVA;
	constant_power_B 12.7133+4.1667j MVA;
	constant_power_C 12.7133+4.1667j MVA;
	constant_impedance_A 0.0000-3582.8025j Ohm;
	constant_impedance_B 0.0000-3582.8025j Ohm;
	constant_impedance_C 0.0000-3582.8025j Ohm;
}
object load {
	name bus138;
	phases ABC;
	nominal_voltage 219.393 kV;
	bustype PQ;
	voltage_A 235.0069-41.3385d kV;
	voltage_B 235.0069-161.3385d kV;
	voltage_C 235.0069+78.6615d kV;
	constant_power_A -25.1267+2.6000j MVA;
	constant_power_B -25.1267+2.6000j MVA;
	constant_power_C -25.1267+2.6000j MVA;
	constant_impedance_A 0.0000-4829.4314j Ohm;
	constant_impedance_B 0.0000-4829.4314j Ohm;
	constant_impedance_C 0.0000-4829.4314j Ohm;
}
object load {
	name bus139;
	phases ABC;
	nominal_voltage 219.393 kV;
	bustype PQ;
	voltage_A 220.0408+17.5689d kV;
	voltage_B 220.0408-102.4311d kV;
	voltage_C 220.0408+137.5689d kV;
	constant_power_A -254.7800+22.3033j MVA;
	constant_power_B -254.7800+22.3033j MVA;
	constant_power_C -254.7800+22.3033j MVA;
	constant_impedance_A 0.0000-4314.3113j Ohm;
	constant_impedance_B 0.0000-4314.3113j Ohm;
	constant_impedance_C 0.0000-4314.3113j Ohm;
}
object load {
	name bus140;
	phases ABC;
	nominal_voltage 127.017 kV;
	bustype PQ;
	voltage_A 130.7248+17.8134d kV;
	voltage_B 130.7248-102.1866d kV;
	voltage_C 130.7248+137.8134d kV;
	constant_impedance_A 0.0000-11690.8213j Ohm;
	constant_impedance_B 0.0000-11690.8213j Ohm;
	constant_impedance_C 0.0000-11690.8213j Ohm;
}
object node {
	name bus143;
	phases ABC;
	nominal_voltage 86.603 kV;
	bustype PQ;
	voltage_A 87.7996+4.4155d kV;
	voltage_B 87.7996-115.5845d kV;
	voltage_C 87.7996+124.4155d kV;
}
object load {
	name bus145;
	phases ABC;
	nominal_voltage 127.017 kV;
	bustype PQ;
	voltage_A 132.3732-8.8802d kV;
	voltage_B 132.3732-128.8802d kV;
	voltage_C 132.3732+111.1198d kV;
	constant_power_A 12.7800+1.8667j MVA;
	constant_power_B 12.7800+1.8667j MVA;
	constant_power_C 12.7800+1.8667j MVA;
	constant_impedance_A 0.0000-6335.0785j Ohm;
	constant_impedance_B 0.0000-6335.0785j Ohm;
	constant_impedance_C 0.0000-6335.0785j Ohm;
}
object load {
	name bus148;
	phases ABC;
	nominal_voltage 127.017 kV;
	bustype PQ;
	voltage_A 132.3119-7.9987d kV;
	voltage_B 132.3119-127.9987d kV;
	voltage_C 132.3119+112.0013d kV;
	constant_power_A 10.7800+4.0000j MVA;
	constant_power_B 10.7800+4.0000j MVA;
	constant_power_C 10.7800+4.0000j MVA;
	constant_impedance_A 0.0000-7934.4262j Ohm;
	constant_impedance_B 0.0000-7934.4262j Ohm;
	constant_impedance_C 0.0000-7934.4262j Ohm;
}
object node {
	name bus150;
	phases ABC;
	nominal_voltage 127.017 kV;
	bustype PQ;
	voltage_A 134.9006+2.5537d kV;
	voltage_B 134.9006-117.4463d kV;
	voltage_C 134.9006+122.5537d kV;
}
object load {
	name bus163;
	phases ABC;
	nominal_voltage 127.017 kV;
	bustype PQ;
	voltage_A 132.4159-10.6689d kV;
	voltage_B 132.4159-130.6689d kV;
	voltage_C 132.4159+109.3311d kV;
	constant_power_A 49.2533+10.9100j MVA;
	constant_power_B 49.2533+10.9100j MVA;
	constant_power_C 49.2533+10.9100j MVA;
	constant_impedance_A 0.0000-5803.3573j Ohm;
	constant_impedance_B 0.0000-5803.3573j Ohm;
	constant_impedance_C 0.0000-5803.3573j Ohm;
}
object load {
	name bus164;
	phases ABC;
	nominal_voltage 86.603 kV;
	bustype PQ;
	voltage_A 87.9761-0.6668d kV;
	voltage_B 87.9761-120.6668d kV;
	voltage_C 87.9761+119.3332d kV;
	constant_impedance_A 0.0000-4352.0309j Ohm;
	constant_impedance_B 0.0000-4352.0309j Ohm;
	constant_impedance_C 0.0000-4352.0309j Ohm;
}
object load {
	name bus171;
	phases ABC;
	nominal_voltage 127.017 kV;
	bustype PQ;
	voltage_A 135.1185-25.1576d kV;
	voltage_B 135.1185-145.1576d kV;
	voltage_C 135.1185+94.8424d kV;
	constant_power_A 33.6000+4.4000j MVA;
	constant_power_B 33.6000+4.4000j MVA;
	constant_power_C 33.6000+4.4000j MVA;
	constant_impedance_A 0.0000-9236.6412j Ohm;
	constant_impedance_B 0.0000-9236.6412j Ohm;
	constant_impedance_C 0.0000-9236.6412j Ohm;
}
object load {
	name bus172;
	phases ABC;
	nominal_voltage 127.017 kV;
	bustype PQ;
	voltage_A 129.1819-46.4437d kV;
	voltage_B 129.1819-166.4437d kV;
	voltage_C 129.1819+73.5563d kV;
	constant_power_A 37.2333+3.6533j MVA;
	constant_power_B 37.2333+3.6533j MVA;
	constant_power_C 37.2333+3.6533j MVA;
	constant_impedance_A 0.0000-11469.1943j Ohm;
	constant_impedance_B 0.0000-11469.1943j Ohm;
	constant_impedance_C 0.0000-11469.1943j Ohm;
}
object load {
	name bus174;
	phases ABC;
	nominal_voltage 127.017 kV;
	bustype PQ;
	voltage_A 136.3517-27.9872d kV;
	voltage_B 136.3517-147.9872d kV;
	voltage_C 136.3517+92.0128d kV;
	constant_power_A 123.5000-5.6667j MVA;
	constant_power_B 123.5000-5.6667j MVA;
	constant_power_C 123.5000-5.6667j MVA;
	constant_impedance_A 0.0000-4883.9556j Ohm;
	constant_impedance_B 0.0000-4883.9556j Ohm;
	constant_impedance_C 0.0000-4883.9556j Ohm;
}
object load {
	name bus177;
	phases ABC;
	nominal_voltage 127.017 kV;
	bustype PQ;
	voltage_A 123.6352-42.6936d kV;
	voltage_B 123.6352-162.6936d kV;
	voltage_C 123.6352+77.3064d kV;
	constant_power_A 31.6333+12.0667j MVA;
	constant_power_B 31.6333+12.0667j MVA;
	constant_power_C 31.6333+12.0667j MVA;
	constant_impedance_A 0.0000-2940.4617j Ohm;
	constant_impedance_B 0.0000-2940.4617j Ohm;
	constant_impedance_C 0.0000-2940.4617j Ohm;
}
object node {
	name bus179;
	phases ABC;
	nominal_voltage 219.393 kV;
	bustype PQ;
	voltage_A 230.1032-49.3400d kV;
	voltage_B 230.1032-169.3400d kV;
	voltage_C 230.1032+70.6600d kV;
}
object load {
	name bus184;
	phases ABC;
	nominal_voltage 127.017 kV;
	bustype PQ;
	voltage_A 132.5650-11.9580d kV;
	voltage_B 132.5650-131.9580d kV;
	voltage_C 132.5650+108.0420d kV;
	constant_impedance_A 0.0000-20000.0000j Ohm;
	constant_impedance_B 0.0000-20000.0000j Ohm;
	constant_impedance_C 0.0000-20000.0000j Ohm;
}
object load {
	name bus188;
	phases ABC;
	nominal_voltage 127.017 kV;
	bustype PQ;
	voltage_A 129.3378-19.5700d kV;
	voltage_B 129.3378-139.5700d kV;
	voltage_C 129.3378+100.4300d kV;
	constant_power_A 12.2800+4.6333j MVA;
	constant_power_B 12.2800+4.6333j MVA;
	constant_power_C 12.2800+4.6333j MVA;
	constant_impedance_A 0.0000-14666.6667j Ohm;
	constant_impedance_B 0.0000-14666.6667j Ohm;
	constant_impedance_C 0.0000-14666.6667j Ohm;
}
object node {
	name bus194;
	phases ABC;
	nominal_voltage 86.603 kV;
	bustype PQ;
	voltage_A 89.1646+13.7879d kV;
	voltage_B 89.1646-106.2121d kV;
	voltage_C 89.1646+133.7879d kV;
}
object load {
	name bus195;
	phases ABC;
	nominal_voltage 127.017 kV;
	bustype PQ;
	voltage_A 133.7732-8.7960d kV;
	voltage_B 133.7732-128.7960d kV;
	voltage_C 133.7732+111.2040d kV;
	constant_power_A 24.3800+7.1833j MVA;
	constant_power_B 24.3800+7.1833j MVA;
	constant_power_C 24.3800+7.1833j MVA;
	constant_impedance_A 0.0000-5680.7512j Ohm;
	constant_impedance_B 0.0000-5680.7512j Ohm;
	constant_impedance_C 0.0000-5680.7512j Ohm;
}
object load {
	name bus196;
	phases ABC;
	nominal_voltage 127.017 kV;
	bustype PQ;
	voltage_A 136.4706-26.3486d kV;
	voltage_B 136.4706-146.3486d kV;
	voltage_C 136.4706+93.6514d kV;
	constant_impedance_A 0.0000-3878.2051j Ohm;
	constant_impedance_B 0.0000-3878.2051j Ohm;
	constant_impedance_C 0.0000-3878.2051j Ohm;
}
object load {
	name bus198;
	phases ABC;
	nominal_voltage 127.017 kV;
	bustype PQ;
	voltage_A 129.0265-16.3344d kV;
	voltage_B 129.0265-136.3344d kV;
	voltage_C 129.0265+103.6656d kV;
	constant_power_A 13.2467+3.9333j MVA;
	constant_power_B 13.2467+3.9333j MVA;
	constant_power_C 13.2467+3.9333j MVA;
	constant_impedance_A 0.0000-33611.1111j Ohm;
	constant_impedance_B 0.0000-33611.1111j Ohm;
	constant_impedance_C 0.0000-33611.1111j Ohm;
}
object load {
	name bus199;
	phases ABC;
	nominal_voltage 86.603 kV;
	bustype PQ;
	voltage_A 87.5721+0.9989d kV;
	voltage_B 87.5721-119.0011d kV;
	voltage_C 87.5721+120.9989d kV;
	constant_power_A 28.9333+9.4667j MVA;
	constant_power_B 28.9333+9.4667j MVA;
	constant_power_C 28.9333+9.4667j MVA;
	constant_impedance_A 0.0000-16791.0448j Ohm;
	constant_impedance_B 0.0000-16791.0448j Ohm;
	constant_impedance_C 0.0000-16791.0448j Ohm;
}
object node {
	name bus201;
	phases ABC;
	nominal_voltage 127.017 kV;
	bustype PQ;
	voltage_A 130.1512-50.7224d kV;
	voltage_B 130.1512-170.7224d kV;
	voltage_C 130.1512+69.2776d kV;
}
object load {
	name bus205;
	phases ABC;
	nominal_voltage 86.603 kV;
	bustype PQ;
	voltage_A 87.3568+4.9962d kV;
	voltage_B 87.3568-115.0038d kV;
	voltage_C 87.3568+124.9962d kV;
	constant_power_A 15.3833+6.0667j MVA;
	constant_power_B 15.3833+6.0667j MVA;
	constant_power_C 15.3833+6.0667j MVA;
	constant_impedance_A 0.0000-17441.8605j Ohm;
	constant_impedance_B 0.0000-17441.8605j Ohm;
	constant_impedance_C 0.0000-17441.8605j Ohm;
}
object load {
	name bus207;
	phases ABC;
	nominal_voltage 127.017 kV;
	bustype PQ;
	voltage_A 130.5218-13.4625d kV;
	voltage_B 130.5218-133.4625d kV;
	voltage_C 130.5218+106.5375d kV;
	constant_power_A 107.3267+28.1333j MVA;
	constant_power_B 107.3267+28.1333j MVA;
	constant_power_C 107.3267+28.1333j MVA;
	constant_impedance_A 0.0000-36119.4030j Ohm;
	constant_impedance_B 0.0000-36119.4030j Ohm;
	constant_impedance_C 0.0000-36119.4030j Ohm;
}
object load {
	name bus211;
	phases ABC;
	nominal_voltage 63.509 kV;
	bustype PQ;
	voltage_A 65.5743+13.5965d kV;
	voltage_B 65.5743-106.4035d kV;
	voltage_C 65.5743+133.5965d kV;
	constant_power_A 25.0933+6.4000j MVA;
	constant_power_B 25.0933+6.4000j MVA;
	constant_power_C 25.0933+6.4000j MVA;
	constant_impedance_A 0.0000-6368.4211j Ohm;
	constant_impedance_B 0.0000-6368.4211j Ohm;
	constant_impedance_C 0.0000-6368.4211j Ohm;
}
object load {
	name bus216;
	phases ABC;
	nominal_voltage 127.017 kV;
	bustype PQ;
	voltage_A 131.9152-24.6346d kV;
	voltage_B 131.9152-144.6346d kV;
	voltage_C 131.9152+95.3654d kV;
	constant_power_A 51.8667+18.2333j MVA;
	constant_power_B 51.8667+18.2333j MVA;
	constant_power_C 51.8667+18.2333j MVA;
	constant_impedance_A 0.0000-21900.4525j Ohm;
	constant_impedance_B 0.0000-21900.4525j Ohm;
	constant_impedance_C 0.0000-21900.4525j Ohm;
}
object load {
	name bus217;
	phases ABC;
	nominal_voltage 127.017 kV;
	bustype PQ;
	voltage_A 131.4254-2.5585d kV;
	voltage_B 131.4254-122.5585d kV;
	voltage_C 131.4254+117.4415d kV;
	constant_power_A 35.0667+0.0333j MVA;
	constant_power_B 35.0667+0.0333j MVA;
	constant_power_C 35.0667+0.0333j MVA;
	constant_impedance_A 0.0000-6576.0870j Ohm;
	constant_impedance_B 0.0000-6576.0870j Ohm;
	constant_impedance_C 0.0000-6576.0870j Ohm;
}
object load {
	name bus218;
	phases ABC;
	nominal_voltage 127.017 kV;
	bustype PQ;
	voltage_A 132.4083-13.1324d kV;
	voltage_B 132.4083-133.1324d kV;
	voltage_C 132.4083+106.8676d kV;
	constant_power_A 23.2767+5.0400j MVA;
	constant_power_B 23.2767+5.0400j MVA;
	constant_power_C 23.2767+5.0400j MVA;
	constant_impedance_A 0.0000-21704.0359j Ohm;
	constant_impedance_B 0.0000-21704.0359j Ohm;
	constant_impedance_C 0.0000-21704.0359j Ohm;
}
object node {
	name bus221;
	phases ABC;
	nominal_voltage 219.393 kV;
	bustype PQ;
	voltage_A 218.5355-22.2192d kV;
	voltage_B 218.5355-142.2192d kV;
	voltage_C 218.5355+97.7808d kV;
}
object load {
	name bus225;
	phases ABC;
	nominal_voltage 127.017 kV;
	bustype PQ;
	voltage_A 134.9733-20.2015d kV;
	voltage_B 134.9733-140.2015d kV;
	voltage_C 134.9733+99.7985d kV;
	constant_impedance_A 0.0000-42086.9565j Ohm;
	constant_impedance_B 0.0000-42086.9565j Ohm;
	constant_impedance_C 0.0000-42086.9565j Ohm;
}
object load {
	name bus228;
	phases ABC;
	nominal_voltage 86.603 kV;
	bustype PQ;
	voltage_A 90.4031-8.1434d kV;
	voltage_B 90.4031-128.1434d kV;
	voltage_C 90.4031+111.8566d kV;
	constant_power_A -7.8100+19.1333j MVA;
	constant_power_B -7.8100+19.1333j MVA;
	constant_power_C -7.8100+19.1333j MVA;
}
object load {
	name bus230;
	phases ABC;
	nominal_voltage 127.017 kV;
	bustype PQ;
	voltage_A 127.9063-46.3433d kV;
	voltage_B 127.9063-166.3433d kV;
	voltage_C 127.9063+73.6567d kV;
	constant_power_A 50.6900+7.5067j MVA;
	constant_power_B 50.6900+7.5067j MVA;
	constant_power_C 50.6900+7.5067j MVA;
	constant_impedance_A 0.0000-6149.9365j Ohm;
	constant_impedance_B 0.0000-6149.9365j Ohm;
	constant_impedance_C 0.0000-6149.9365j Ohm;
}
object load {
	name bus231;
	phases ABC;
	nominal_voltage 63.509 kV;
	bustype PQ;
	voltage_A 64.7636+23.1156d kV;
	voltage_B 64.7636-96.8844d kV;
	voltage_C 64.7636+143.1156d kV;
	constant_power_A -0.0433-0.3333j MVA;
	constant_power_B -0.0433-0.3333j MVA;
	constant_power_C -0.0433-0.3333j MVA;
}
object load {
	name bus236;
	phases ABC;
	nominal_voltage 127.017 kV;
	bustype PQ;
	voltage_A 130.6815-53.5478d kV;
	voltage_B 130.6815-173.5478d kV;
	voltage_C 130.6815+66.4522d kV;
	constant_power_A 15.2833+2.3333j MVA;
	constant_power_B 15.2833+2.3333j MVA;
	constant_power_C 15.2833+2.3333j MVA;
	constant_impedance_A 0.0000-46095.2381j Ohm;
	constant_impedance_B 0.0000-46095.2381j Ohm;
	constant_impedance_C 0.0000-46095.2381j Ohm;
}
object load {
	name bus243;
	phases ABC;
	nominal_voltage 86.603 kV;
	bustype PQ;
	voltage_A 88.0878+17.7609d kV;
	voltage_B 88.0878-102.2391d kV;
	voltage_C 88.0878+137.7609d kV;
	constant_power_A 0.0000-0.0033j MVA;
	constant_power_B 0.0000-0.0033j MVA;
	constant_power_C 0.0000-0.0033j MVA;
	constant_impedance_A 0.0000-1667.9021j Ohm;
	constant_impedance_B 0.0000-1667.9021j Ohm;
	constant_impedance_C 0.0000-1667.9021j Ohm;
}
object load {
	name bus244;
	phases ABC;
	nominal_voltage 86.603 kV;
	bustype PQ;
	voltage_A 88.2015+6.9175d kV;
	voltage_B 88.2015-113.0825d kV;
	voltage_C 88.2015+126.9175d kV;
	constant_impedance_A 0.0000-33088.2353j Ohm;
	constant_impedance_B 0.0000-33088.2353j Ohm;
	constant_impedance_C 0.0000-33088.2353j Ohm;
}
object load {
	name bus249;
	phases ABC;
	nominal_voltage 127.017 kV;
	bustype PQ;
	voltage_A 127.7023-42.3598d kV;
	voltage_B 127.7023-162.3598d kV;
	voltage_C 127.7023+77.6402d kV;
	constant_impedance_A 0.0000-1840.3042j Ohm;
	constant_impedance_B 0.0000-1840.3042j Ohm;
	constant_impedance_C 0.0000-1840.3042j Ohm;
}
object load {
	name bus257;
	phases ABC;
	nominal_voltage 127.017 kV;
	bustype PQ;
	voltage_A 131.3475-45.5145d kV;
	voltage_B 131.3475-165.5145d kV;
	voltage_C 131.3475+74.4855d kV;
	constant_power_A 37.9667+8.1667j MVA;
	constant_power_B 37.9667+8.1667j MVA;
	constant_power_C 37.9667+8.1667j MVA;
	constant_impedance_A 0.0000-7202.3810j Ohm;
	constant_impedance_B 0.0000-7202.3810j Ohm;
	constant_impedance_C 0.0000-7202.3810j Ohm;
}
object load {
	name bus261;
	phases ABC;
	nominal_voltage 219.393 kV;
	bustype PQ;
	voltage_A 231.8713-45.1245d kV;
	voltage_B 231.8713-165.1245d kV;
	voltage_C 231.8713+74.8755d kV;
	constant_impedance_A 0.0000-111937.9845j Ohm;
	constant_impedance_B 0.0000-111937.9845j Ohm;
	constant_impedance_C 0.0000-111937.9845j Ohm;
}
object load {
	name bus264;
	phases ABC;
	nominal_voltage 127.017 kV;
	bustype PQ;
	voltage_A 128.9287-46.4060d kV;
	voltage_B 128.9287-166.4060d kV;
	voltage_C 128.9287+73.5940d kV;
	constant_power_A 12.9133+3.0000j MVA;
	constant_power_B 12.9133+3.0000j MVA;
	constant_power_C 12.9133+3.0000j MVA;
	constant_impedance_A 0.0000-84912.2807j Ohm;
	constant_impedance_B 0.0000-84912.2807j Ohm;
	constant_impedance_C 0.0000-84912.2807j Ohm;
}
object load {
	name bus266;
	phases ABC;
	nominal_voltage 219.393 kV;
	bustype PQ;
	voltage_A 232.5016-41.8806d kV;
	voltage_B 232.5016-161.8806d kV;
	voltage_C 232.5016+78.1194d kV;
	constant_impedance_A 0.0000-1024.4041j Ohm;
	constant_impedance_B 0.0000-1024.4041j Ohm;
	constant_impedance_C 0.0000-1024.4041j Ohm;
}
object load {
	name bus267;
	phases ABC;
	nominal_voltage 127.017 kV;
	bustype PQ;
	voltage_A 129.0832-50.5497d kV;
	voltage_B 129.0832-170.5497d kV;
	voltage_C 129.0832+69.4503d kV;
	constant_power_A 34.6000+0.9000j MVA;
	constant_power_B 34.6000+0.9000j MVA;
	constant_power_C 34.6000+0.9000j MVA;
	constant_impedance_A 0.0000-14534.5345j Ohm;
	constant_impedance_B 0.0000-14534.5345j Ohm;
	constant_impedance_C 0.0000-14534.5345j Ohm;
}
object load {
	name bus268;
	phases ABC;
	nominal_voltage 127.017 kV;
	bustype PQ;
	voltage_A 132.9441+26.4814d kV;
	voltage_B 132.9441-93.5186d kV;
	voltage_C 132.9441+146.4814d kV;
	constant_power_A -0.0433-0.3333j MVA;
	constant_power_B -0.0433-0.3333j MVA;
	constant_power_C -0.0433-0.3333j MVA;
}
object load {
	name bus271;
	phases ABC;
	nominal_voltage 86.603 kV;
	bustype PQ;
	voltage_A 90.0632-9.6717d kV;
	voltage_B 90.0632-129.6717d kV;
	voltage_C 90.0632+110.3283d kV;
	constant_power_A 32.2333+8.9333j MVA;
	constant_power_B 32.2333+8.9333j MVA;
	constant_power_C 32.2333+8.9333j MVA;
}
object load {
	name bus275;
	phases ABC;
	nominal_voltage 86.603 kV;
	bustype PQ;
	voltage_A 87.6970+2.3828d kV;
	voltage_B 87.6970-117.6172d kV;
	voltage_C 87.6970+122.3828d kV;
	constant_power_A 34.0333+8.4333j MVA;
	constant_power_B 34.0333+8.4333j MVA;
	constant_power_C 34.0333+8.4333j MVA;
	constant_impedance_A 0.0000-20270.2703j Ohm;
	constant_impedance_B 0.0000-20270.2703j Ohm;
	constant_impedance_C 0.0000-20270.2703j Ohm;
}
object load {
	name bus280;
	phases ABC;
	nominal_voltage 127.017 kV;
	bustype PQ;
	voltage_A 131.2248-11.1866d kV;
	voltage_B 131.2248-131.1866d kV;
	voltage_C 131.2248+108.8134d kV;
	constant_power_A 39.8667+9.8667j MVA;
	constant_power_B 39.8667+9.8667j MVA;
	constant_power_C 39.8667+9.8667j MVA;
	constant_impedance_A 0.0000-9063.6704j Ohm;
	constant_impedance_B 0.0000-9063.6704j Ohm;
	constant_impedance_C 0.0000-9063.6704j Ohm;
}
object load {
	name bus281;
	phases ABC;
	nominal_voltage 219.393 kV;
	bustype PQ;
	voltage_A 227.0866+14.0073d kV;
	voltage_B 227.0866-105.9927d kV;
	voltage_C 227.0866+134.0073d kV;
	constant_impedance_A 0.0000-7991.1455j Ohm;
	constant_impedance_B 0.0000-7991.1455j Ohm;
	constant_impedance_C 0.0000-7991.1455j Ohm;
}
object load {
	name bus283;
	phases ABC;
	nominal_voltage 127.017 kV;
	bustype PQ;
	voltage_A 131.6266-12.1018d kV;
	voltage_B 131.6266-132.1018d kV;
	voltage_C 131.6266+107.8982d kV;
	constant_power_A 9.1100+3.9667j MVA;
	constant_power_B 9.1100+3.9667j MVA;
	constant_power_C 9.1100+3.9667j MVA;
	constant_impedance_A 0.0000-41367.5214j Ohm;
	constant_impedance_B 0.0000-41367.5214j Ohm;
	constant_impedance_C 0.0000-41367.5214j Ohm;
}
object load {
	name bus284;
	phases ABC;
	nominal_voltage 127.017 kV;
	bustype PQ;
	voltage_A 130.0577-48.3380d kV;
	voltage_B 130.0577-168.3380d kV;
	voltage_C 130.0577+71.6620d kV;
	constant_power_A 63.7333-1.1333j MVA;
	constant_power_B 63.7333-1.1333j MVA;
	constant_power_C 63.7333-1.1333j MVA;
	constant_impedance_A 0.0000-2519.5211j Ohm;
	constant_impedance_B 0.0000-2519.5211j Ohm;
	constant_impedance_C 0.0000-2519.5211j Ohm;
}
object load {
	name bus292;
	phases ABC;
	nominal_voltage 127.017 kV;
	bustype PQ;
	voltage_A 133.0593-14.7563d kV;
	voltage_B 133.0593-134.7563d kV;
	voltage_C 133.0593+105.2437d kV;
	constant_power_A 4.6067+0.4667j MVA;
	constant_power_B 4.6067+0.4667j MVA;
	constant_power_C 4.6067+0.4667j MVA;
	constant_impedance_A 0.0000-69142.8571j Ohm;
	constant_impedance_B 0.0000-69142.8571j Ohm;
	constant_impedance_C 0.0000-69142.8571j Ohm;
}
object load {
	name bus297;
	phases ABC;
	nominal_voltage 86.603 kV;
	bustype PQ;
	voltage_A 88.8342+4.4989d kV;
	voltage_B 88.8342-115.5011d kV;
	voltage_C 88.8342+124.4989d kV;
	constant_power_A 7.9100+3.1333j MVA;
	constant_power_B 7.9100+3.1333j MVA;
	constant_power_C 7.9100+3.1333j MVA;
	constant_impedance_A 0.0000-15517.2414j Ohm;
	constant_impedance_B 0.0000-15517.2414j Ohm;
	constant_impedance_C 0.0000-15517.2414j Ohm;
}
object node {
	name bus299;
	phases ABC;
	nominal_voltage 219.393 kV;
	bustype PQ;
	voltage_A 229.5284-45.8322d kV;
	voltage_B 229.5284-165.8322d kV;
	voltage_C 229.5284+74.1678d kV;
}
object load {
	name bus304;
	phases ABC;
	nominal_voltage 86.603 kV;
	bustype PQ;
	voltage_A 86.1198-53.7249d kV;
	voltage_B 86.1198-173.7249d kV;
	voltage_C 86.1198+66.2751d kV;
	constant_power_A 0.7333+0.1667j MVA;
	constant_power_B 0.7333+0.1667j MVA;
	constant_power_C 0.7333+0.1667j MVA;
	constant_impedance_A 0.0000-107142.8571j Ohm;
	constant_impedance_B 0.0000-107142.8571j Ohm;
	constant_impedance_C 0.0000-107142.8571j Ohm;
}
object load {
	name bus305;
	phases ABC;
	nominal_voltage 127.017 kV;
	bustype PQ;
	voltage_A 135.4079-32.4948d kV;
	voltage_B 135.4079-152.4948d kV;
	voltage_C 135.4079+87.5052d kV;
	constant_power_A 34.3333+4.0000j MVA;
	constant_power_B 34.3333+4.0000j MVA;
	constant_power_C 34.3333+4.0000j MVA;
	constant_impedance_A 0.0000-76825.3968j Ohm;
	constant_impedance_B 0.0000-76825.3968j Ohm;
	constant_impedance_C 0.0000-76825.3968j Ohm;
}
object load {
	name bus306;
	phases ABC;
	nominal_voltage 127.017 kV;
	bustype PQ;
	voltage_A 130.8029-18.8458d kV;
	voltage_B 130.8029-138.8458d kV;
	voltage_C 130.8029+101.1542d kV;
	constant_impedance_A 0.0000-10168.0672j Ohm;
	constant_impedance_B 0.0000-10168.0672j Ohm;
	constant_impedance_C 0.0000-10168.0672j Ohm;
}
object load {
	name bus311;
	phases ABC;
	nominal_voltage 86.603 kV;
	bustype PQ;
	voltage_A 86.8758-2.0033d kV;
	voltage_B 86.8758-122.0033d kV;
	voltage_C 86.8758+117.9967d kV;
	constant_power_A 14.0167+5.7333j MVA;
	constant_power_B 14.0167+5.7333j MVA;
	constant_power_C 14.0167+5.7333j MVA;
	constant_impedance_A 0.0000-17175.5725j Ohm;
	constant_impedance_B 0.0000-17175.5725j Ohm;
	constant_impedance_C 0.0000-17175.5725j Ohm;
}
object load {
	name bus312;
	phases ABC;
	nominal_voltage 63.509 kV;
	bustype PQ;
	voltage_A 66.9962+11.6724d kV;
	voltage_B 66.9962-108.3276d kV;
	voltage_C 66.9962+131.6724d kV;
	constant_power_A -0.0533-0.9700j MVA;
	constant_power_B -0.0533-0.9700j MVA;
	constant_power_C -0.0533-0.9700j MVA;
	constant_impedance_A 0.0000-28139.5349j Ohm;
	constant_impedance_B 0.0000-28139.5349j Ohm;
	constant_impedance_C 0.0000-28139.5349j Ohm;
}
object load {
	name bus314;
	phases ABC;
	nominal_voltage 127.017 kV;
	bustype PQ;
	voltage_A 127.1053-16.0686d kV;
	voltage_B 127.1053-136.0686d kV;
	voltage_C 127.1053+103.9314d kV;
	constant_power_A 54.3667+15.4333j MVA;
	constant_power_B 54.3667+15.4333j MVA;
	constant_power_C 54.3667+15.4333j MVA;
	constant_impedance_A 0.0000-4566.0377j Ohm;
	constant_impedance_B 0.0000-4566.0377j Ohm;
	constant_impedance_C 0.0000-4566.0377j Ohm;
}
object load {
	name bus315;
	phases ABC;
	nominal_voltage 127.017 kV;
	bustype PQ;
	voltage_A 130.4294-35.8877d kV;
	voltage_B 130.4294-155.8877d kV;
	voltage_C 130.4294+84.1123d kV;
	constant_impedance_A 0.0000-22723.0047j Ohm;
	constant_impedance_B 0.0000-22723.0047j Ohm;
	constant_impedance_C 0.0000-22723.0047j Ohm;
}
object load {
	name bus317;
	phases ABC;
	nominal_voltage 219.393 kV;
	bustype PQ;
	voltage_A 223.2713+6.3943d kV;
	voltage_B 223.2713-113.6057d kV;
	voltage_C 223.2713+126.3943d kV;
	constant_impedance_A 1997.2286+79201.8986j Ohm;
	constant_impedance_B 1997.2286+79201.8986j Ohm;
	constant_impedance_C 1997.2286+79201.8986j Ohm;
}
object load {
	name bus322;
	phases ABC;
	nominal_voltage 127.017 kV;
	bustype PQ;
	voltage_A 122.4358-44.2218d kV;
	voltage_B 122.4358-164.2218d kV;
	voltage_C 122.4358+75.7782d kV;
	constant_power_A 101.2667+28.4667j MVA;
	constant_power_B 101.2667+28.4667j MVA;
	constant_power_C 101.2667+28.4667j MVA;
	constant_impedance_A 0.0000-13333.3333j Ohm;
	constant_impedance_B 0.0000-13333.3333j Ohm;
	constant_impedance_C 0.0000-13333.3333j Ohm;
}
object node {
	name bus326;
	phases ABC;
	nominal_voltage 127.017 kV;
	bustype PQ;
	voltage_A 132.9609+26.5282d kV;
	voltage_B 132.9609-93.4718d kV;
	voltage_C 132.9609+146.5282d kV;
}
object load {
	name bus333;
	phases ABC;
	nominal_voltage 127.017 kV;
	bustype PQ;
	voltage_A 128.6452-42.2258d kV;
	voltage_B 128.6452-162.2258d kV;
	voltage_C 128.6452+77.7742d kV;
	constant_power_A 174.8333+14.3333j MVA;
	constant_power_B 174.8333+14.3333j MVA;
	constant_power_C 174.8333+14.3333j MVA;
	constant_impedance_A 0.0000-7065.6934j Ohm;
	constant_impedance_B 0.0000-7065.6934j Ohm;
	constant_impedance_C 0.0000-7065.6934j Ohm;
}
object node {
	name bus338;
	phases ABC;
	nominal_voltage 127.017 kV;
	bustype PQ;
	voltage_A 133.3143-6.1444d kV;
	voltage_B 133.3143-126.1444d kV;
	voltage_C 133.3143+113.8556d kV;
}
object load {
	name bus344;
	phases ABC;
	nominal_voltage 86.603 kV;
	bustype PQ;
	voltage_A 88.5526-1.3884d kV;
	voltage_B 88.5526-121.3884d kV;
	voltage_C 88.5526+118.6116d kV;
	constant_power_A 124.2667+49.1667j MVA;
	constant_power_B 124.2667+49.1667j MVA;
	constant_power_C 124.2667+49.1667j MVA;
	constant_impedance_A 0.0000-811.3956j Ohm;
	constant_impedance_B 0.0000-811.3956j Ohm;
	constant_impedance_C 0.0000-811.3956j Ohm;
}
object load {
	name bus346;
	phases ABC;
	nominal_voltage 127.017 kV;
	bustype PQ;
	voltage_A 132.0201-21.3337d kV;
	voltage_B 132.0201-141.3337d kV;
	voltage_C 132.0201+98.6663d kV;
	constant_power_A 65.8333+16.1000j MVA;
	constant_power_B 65.8333+16.1000j MVA;
	constant_power_C 65.8333+16.1000j MVA;
	constant_impedance_A 0.0000-68169.0141j Ohm;
	constant_impedance_B 0.0000-68169.0141j Ohm;
	constant_impedance_C 0.0000-68169.0141j Ohm;
}
object load {
	name bus349;
	phases ABC;
	nominal_voltage 86.603 kV;
	bustype PQ;
	voltage_A 90.7011+9.0791d kV;
	voltage_B 90.7011-110.9209d kV;
	voltage_C 90.7011+129.0791d kV;
	constant_impedance_A 0.0000-1485.1485j Ohm;
	constant_impedance_B 0.0000-1485.1485j Ohm;
	constant_impedance_C 0.0000-1485.1485j Ohm;
}
object load {
	name bus350;
	phases ABC;
	nominal_voltage 127.017 kV;
	bustype PQ;
	voltage_A 132.4756-24.3244d kV;
	voltage_B 132.4756-144.3244d kV;
	voltage_C 132.4756+95.6756d kV;
	constant_power_A 36.8000+8.7333j MVA;
	constant_power_B 36.8000+8.7333j MVA;
	constant_power_C 36.8000+8.7333j MVA;
	constant_impedance_A 0.0000-8612.0996j Ohm;
	constant_impedance_B 0.0000-8612.0996j Ohm;
	constant_impedance_C 0.0000-8612.0996j Ohm;
}
object load {
	name bus351;
	phases ABC;
	nominal_voltage 127.017 kV;
	bustype PQ;
	voltage_A 130.5804+18.5408d kV;
	voltage_B 130.5804-101.4592d kV;
	voltage_C 130.5804+138.5408d kV;
	constant_power_A -0.0500-0.6433j MVA;
	constant_power_B -0.0500-0.6433j MVA;
	constant_power_C -0.0500-0.6433j MVA;
}
object node {
	name bus352;
	phases ABC;
	nominal_voltage 219.393 kV;
	bustype PQ;
	voltage_A 231.3919+0.2478d kV;
	voltage_B 231.3919-119.7522d kV;
	voltage_C 231.3919+120.2478d kV;
}
object load {
	name bus360;
	phases ABC;
	nominal_voltage 63.509 kV;
	bustype PQ;
	voltage_A 66.5339+11.3841d kV;
	voltage_B 66.5339-108.6159d kV;
	voltage_C 66.5339+131.3841d kV;
	constant_power_A 11.8467+3.8333j MVA;
	constant_power_B 11.8467+3.8333j MVA;
	constant_power_C 11.8467+3.8333j MVA;
	constant_impedance_A 0.0000-3315.0685j Ohm;
	constant_impedance_B 0.0000-3315.0685j Ohm;
	constant_impedance_C 0.0000-3315.0685j Ohm;
}
object load {
	name bus367;
	phases ABC;
	nominal_voltage 127.017 kV;
	bustype PQ;
	voltage_A 136.0680-23.6261d kV;
	voltage_B 136.0680-143.6261d kV;
	voltage_C 136.0680+96.3739d kV;
	constant_power_A 21.7233-17.1667j MVA;
	constant_power_B 21.7233-17.1667j MVA;
	constant_power_C 21.7233-17.1667j MVA;
	constant_impedance_A 0.0000-9979.3814j Ohm;
	constant_impedance_B 0.0000-9979.3814j Ohm;
	constant_impedance_C 0.0000-9979.3814j Ohm;
}
object load {
	name bus369;
	phases ABC;
	nominal_voltage 127.017 kV;
	bustype PQ;
	voltage_A 132.7435+13.5939d kV;
	voltage_B 132.7435-106.4061d kV;
	voltage_C 132.7435+133.5939d kV;
	constant_impedance_A 0.0000-12804.2328j Ohm;
	constant_impedance_B 0.0000-12804.2328j Ohm;
	constant_impedance_C 0.0000-12804.2328j Ohm;
}
object load {
	name bus370;
	phases ABC;
	nominal_voltage 86.603 kV;
	bustype PQ;
	voltage_A 86.6415-2.1948d kV;
	voltage_B 86.6415-122.1948d kV;
	voltage_C 86.6415+117.8052d kV;
	constant_power_A 18.9200+7.7333j MVA;
	constant_power_B 18.9200+7.7333j MVA;
	constant_power_C 18.9200+7.7333j MVA;
	constant_impedance_A 0.0000-45918.3673j Ohm;
	constant_impedance_B 0.0000-45918.3673j Ohm;
	constant_impedance_C 0.0000-45918.3673j Ohm;
}
object load {
	name bus377;
	phases ABC;
	nominal_voltage 86.603 kV;
	bustype PQ;
	voltage_A 88.4760+11.1310d kV;
	voltage_B 88.4760-108.8690d kV;
	voltage_C 88.4760+131.1310d kV;
	constant_power_A -0.0600-0.3333j MVA;
	constant_power_B -0.0600-0.3333j MVA;
	constant_power_C -0.0600-0.3333j MVA;
}
object load {
	name bus380;
	phases ABC;
	nominal_voltage 127.017 kV;
	bustype PQ;
	voltage_A 127.5651-32.7060d kV;
	voltage_B 127.5651-152.7060d kV;
	voltage_C 127.5651+87.2940d kV;
	constant_power_A -31.9033-0.9333j MVA;
	constant_power_B -31.9033-0.9333j MVA;
	constant_power_C -31.9033-0.9333j MVA;
	constant_impedance_A 0.0000-6675.8621j Ohm;
	constant_impedance_B 0.0000-6675.8621j Ohm;
	constant_impedance_C 0.0000-6675.8621j Ohm;
}
object load {
	name bus385;
	phases ABC;
	nominal_voltage 219.393 kV;
	bustype PQ;
	voltage_A 229.2757-49.1517d kV;
	voltage_B 229.2757-169.1517d kV;
	voltage_C 229.2757+70.8483d kV;
	constant_impedance_A 0.0000-1364.3235j Ohm;
	constant_impedance_B 0.0000-1364.3235j Ohm;
	constant_impedance_C 0.0000-1364.3235j Ohm;
}
object load {
	name bus387;
	phases ABC;
	nominal_voltage 86.603 kV;
	bustype PQ;
	voltage_A 90.1075+6.6055d kV;
	voltage_B 90.1075-113.3945d kV;
	voltage_C 90.1075+126.6055d kV;
	constant_power_A -0.0633-1.4600j MVA;
	constant_power_B -0.0633-1.4600j MVA;
	constant_power_C -0.0633-1.4600j MVA;
}
object node {
	name bus389;
	phases ABC;
	nominal_voltage 86.603 kV;
	bustype PQ;
	voltage_A 88.4087-40.6459d kV;
	voltage_B 88.4087-160.6459d kV;
	voltage_C 88.4087+79.3541d kV;
}
object load {
	name bus392;
	phases ABC;
	nominal_voltage 86.603 kV;
	bustype PQ;
	voltage_A 87.0839-0.5150d kV;
	voltage_B 87.0839-120.5150d kV;
	voltage_C 87.0839+119.4850d kV;
	constant_power_A 44.7000+11.4000j MVA;
	constant_power_B 44.7000+11.4000j MVA;
	constant_power_C 44.7000+11.4000j MVA;
	constant_impedance_A 0.0000-30000.0000j Ohm;
	constant_impedance_B 0.0000-30000.0000j Ohm;
	constant_impedance_C 0.0000-30000.0000j Ohm;
}
object load {
	name bus395;
	phases ABC;
	nominal_voltage 219.393 kV;
	bustype PQ;
	voltage_A 226.8863+15.2822d kV;
	voltage_B 226.8863-104.7178d kV;
	voltage_C 226.8863+135.2822d kV;
	constant_impedance_A 0.0000-18394.9045j Ohm;
	constant_impedance_B 0.0000-18394.9045j Ohm;
	constant_impedance_C 0.0000-18394.9045j Ohm;
}
object load {
	name bus401;
	phases ABC;
	nominal_voltage 127.017 kV;
	bustype PQ;
	voltage_A 130.6001-14.3232d kV;
	voltage_B 130.6001-134.3232d kV;
	voltage_C 130.6001+105.6768d kV;
	constant_power_A 18.8333+12.0967j MVA;
	constant_power_B 18.8333+12.0967j MVA;
	constant_power_C 18.8333+12.0967j MVA;
	constant_impedance_A 0.0000-15714.2857j Ohm;
	constant_impedance_B 0.0000-15714.2857j Ohm;
	constant_impedance_C 0.0000-15714.2857j Ohm;
}
object load {
	name bus408;
	phases ABC;
	nominal_voltage 127.017 kV;
	bustype PQ;
	voltage_A 132.2864-11.5628d kV;
	voltage_B 132.2864-131.5628d kV;
	voltage_C 132.2864+108.4372d kV;
	constant_power_A 43.0333+2.4667j MVA;
	constant_power_B 43.0333+2.4667j MVA;
	constant_power_C 43.0333+2.4667j MVA;
	constant_impedance_A 0.0000-1210000.0000j Ohm;
	constant_impedance_B 0.0000-1210000.0000j Ohm;
	constant_impedance_C 0.0000-1210000.0000j Ohm;
}
object load {
	name bus410;
	phases ABC;
	nominal_voltage 127.017 kV;
	bustype PQ;
	voltage_A 131.5174-26.6318d kV;
	voltage_B 131.5174-146.6318d kV;
	voltage_C 131.5174+93.3682d kV;
	constant_power_A 56.9633+16.7933j MVA;
	constant_power_B 56.9633+16.7933j MVA;
	constant_power_C 56.9633+16.7933j MVA;
	constant_impedance_A 0.0000-7515.5280j Ohm;
	constant_impedance_B 0.0000-7515.5280j Ohm;
	constant_impedance_C 0.0000-7515.5280j Ohm;
}
object node {
	name bus413;
	phases ABC;
	nominal_voltage 127.017 kV;
	bustype PQ;
	voltage_A 133.6413-6.6296d kV;
	voltage_B 133.6413-126.6296d kV;
	voltage_C 133.6413+113.3704d kV;
}
object load {
	name bus415;
	phases ABC;
	nominal_voltage 127.017 kV;
	bustype PQ;
	voltage_A 130.7522-51.5485d kV;
	voltage_B 130.7522-171.5485d kV;
	voltage_C 130.7522+68.4515d kV;
	constant_power_A 1.5700+0.2333j MVA;
	constant_power_B 1.5700+0.2333j MVA;
	constant_power_C 1.5700+0.2333j MVA;
	constant_impedance_A 0.0000-4249.3415j Ohm;
	constant_impedance_B 0.0000-4249.3415j Ohm;
	constant_impedance_C 0.0000-4249.3415j Ohm;
}
object load {
	name bus416;
	phases ABC;
	nominal_voltage 127.017 kV;
	bustype PQ;
	voltage_A 132.3241-6.7133d kV;
	voltage_B 132.3241-126.7133d kV;
	voltage_C 132.3241+113.2867d kV;
	constant_power_A 23.5600+4.5000j MVA;
	constant_power_B 23.5600+4.5000j MVA;
	constant_power_C 23.5600+4.5000j MVA;
	constant_impedance_A 0.0000-6954.0230j Ohm;
	constant_impedance_B 0.0000-6954.0230j Ohm;
	constant_impedance_C 0.0000-6954.0230j Ohm;
}
object node {
	name bus420;
	phases ABC;
	nominal_voltage 219.393 kV;
	bustype PQ;
	voltage_A 230.3217+18.5684d kV;
	voltage_B 230.3217-101.4316d kV;
	voltage_C 230.3217+138.5684d kV;
}
object load {
	name bus425;
	phases ABC;
	nominal_voltage 219.393 kV;
	bustype PQ;
	voltage_A 221.2979+6.8777d kV;
	voltage_B 221.2979-113.1223d kV;
	voltage_C 221.2979+126.8777d kV;
	constant_impedance_A 0.0000-53088.2353j Ohm;
	constant_impedance_B 0.0000-53088.2353j Ohm;
	constant_impedance_C 0.0000-53088.2353j Ohm;
}
object load {
	name bus426;
	phases ABC;
	nominal_voltage 127.017 kV;
	bustype PQ;
	voltage_A 132.1687-18.4040d kV;
	voltage_B 132.1687-138.4040d kV;
	voltage_C 132.1687+101.5960d kV;
	constant_power_A 41.0333+2.1667j MVA;
	constant_power_B 41.0333+2.1667j MVA;
	constant_power_C 41.0333+2.1667j MVA;
	constant_impedance_A 0.0000-14892.3077j Ohm;
	constant_impedance_B 0.0000-14892.3077j Ohm;
	constant_impedance_C 0.0000-14892.3077j Ohm;
}
object load {
	name bus427;
	phases ABC;
	nominal_voltage 219.393 kV;
	bustype PQ;
	voltage_A 236.4740-35.4471d kV;
	voltage_B 236.4740-155.4471d kV;
	voltage_C 236.4740+84.5529d kV;
	constant_impedance_A 0.0000-116451.6129j Ohm;
	constant_impedance_B 0.0000-116451.6129j Ohm;
	constant_impedance_C 0.0000-116451.6129j Ohm;
}
object load {
	name bus429;
	phases ABC;
	nominal_voltage 127.017 kV;
	bustype PQ;
	voltage_A 129.3069-45.1663d kV;
	voltage_B 129.3069-165.1663d kV;
	voltage_C 129.3069+74.8337d kV;
	constant_power_A 8.9767-7.4667j MVA;
	constant_power_B 8.9767-7.4667j MVA;
	constant_power_C 8.9767-7.4667j MVA;
	constant_impedance_A 0.0000-9777.7778j Ohm;
	constant_impedance_B 0.0000-9777.7778j Ohm;
	constant_impedance_C 0.0000-9777.7778j Ohm;
}
object load {
	name bus432;
	phases ABC;
	nominal_voltage 219.393 kV;
	bustype PQ;
	voltage_A 229.5225+2.4182d kV;
	voltage_B 229.5225-117.5818d kV;
	voltage_C 229.5225+122.4182d kV;
	constant_impedance_A 0.0000-2107.4858j Ohm;
	constant_impedance_B 0.0000-2107.4858j Ohm;
	constant_impedance_C 0.0000-2107.4858j Ohm;
}
object node {
	name bus440;
	phases ABC;
	nominal_voltage 127.017 kV;
	bustype PQ;
	voltage_A 130.7542-36.0736d kV;
	voltage_B 130.7542-156.0736d kV;
	voltage_C 130.7542+83.9264d kV;
}
object load {
	name bus441;
	phases ABC;
	nominal_voltage 219.393 kV;
	bustype PQ;
	voltage_A 227.5477-51.7062d kV;
	voltage_B 227.5477-171.7062d kV;
	voltage_C 227.5477+68.2938d kV;
	constant_impedance_A 37.0869-5177.4928j Ohm;
	constant_impedance_B 37.0869-5177.4928j Ohm;
	constant_impedance_C 37.0869-5177.4928j Ohm;
}
object node {
	name bus442;
	phases ABC;
	nominal_voltage 127.017 kV;
	bustype PQ;
	voltage_A 128.7558-46.0104d kV;
	voltage_B 128.7558-166.0104d kV;
	voltage_C 128.7558+73.9896d kV;
}
object load {
	name bus444;
	phases ABC;
	nominal_voltage 127.017 kV;
	bustype PQ;
	voltage_A 131.7411-12.2083d kV;
	voltage_B 131.7411-132.2083d kV;
	voltage_C 131.7411+107.7917d kV;
	constant_impedance_A 0.0000-19755.1020j Ohm;
	constant_impedance_B 0.0000-19755.1020j Ohm;
	constant_impedance_C 0.0000-19755.1020j Ohm;
}
object load {
	name bus445;
	phases ABC;
	nominal_voltage 127.017 kV;
	bustype PQ;
	voltage_A 129.8451-44.3790d kV;
	voltage_B 129.8451-164.3790d kV;
	voltage_C 129.8451+75.6210d kV;
	constant_power_A 12.2467+3.4333j MVA;
	constant_power_B 12.2467+3.4333j MVA;
	constant_power_C 12.2467+3.4333j MVA;
	constant_impedance_A 0.0000-5975.3086j Ohm;
	constant_impedance_B 0.0000-5975.3086j Ohm;
	constant_impedance_C 0.0000-5975.3086j Ohm;
}
object load {
	name bus449;
	phases ABC;
	nominal_voltage 219.393 kV;
	bustype PQ;
	voltage_A 224.0464-8.5052d kV;
	voltage_B 224.0464-128.5052d kV;
	voltage_C 224.0464+111.4948d kV;
	constant_impedance_A 0.0000-4908.2257j Ohm;
	constant_impedance_B 0.0000-4908.2257j Ohm;
	constant_impedance_C 0.0000-4908.2257j Ohm;
}
object node {
	name bus453;
	phases ABC;
	nominal_voltage 219.393 kV;
	bustype PQ;
	voltage_A 224.0214-7.8226d kV;
	voltage_B 224.0214-127.8226d kV;
	voltage_C 224.0214+112.1774d kV;
}
object load {
	name bus455;
	phases ABC;
	nominal_voltage 127.017 kV;
	bustype PQ;
	voltage_A 132.5480-30.6481d kV;
	voltage_B 132.5480-150.6481d kV;
	voltage_C 132.5480+89.3519d kV;
	constant_power_A 91.4400+1.8867j MVA;
	constant_power_B 91.4400+1.8867j MVA;
	constant_power_C 91.4400+1.8867j MVA;
	constant_impedance_A 0.0000-3655.5891j Ohm;
	constant_impedance_B 0.0000-3655.5891j Ohm;
	constant_impedance_C 0.0000-3655.5891j Ohm;
}
object load {
	name bus472;
	phases ABC;
	nominal_voltage 86.603 kV;
	bustype PQ;
	voltage_A 90.9208+7.8886d kV;
	voltage_B 90.9208-112.1114d kV;
	voltage_C 90.9208+127.8886d kV;
	constant_power_A 112.0667+43.8667j MVA;
	constant_power_B 112.0667+43.8667j MVA;
	constant_power_C 112.0667+43.8667j MVA;
	constant_impedance_A 0.0000-351.5076j Ohm;
	constant_impedance_B 0.0000-351.5076j Ohm;
	constant_impedance_C 0.0000-351.5076j Ohm;
}
object load {
	name bus473;
	phases ABC;
	nominal_voltage 127.017 kV;
	bustype PQ;
	voltage_A 130.5467-45.6582d kV;
	voltage_B 130.5467-165.6582d kV;
	voltage_C 130.5467+74.3418d kV;
	constant_power_A -7.6500-1.2400j MVA;
	constant_power_B -7.6500-1.2400j MVA;
	constant_power_C -7.6500-1.2400j MVA;
	constant_impedance_A 0.0000-3375.1743j Ohm;
	constant_impedance_B 0.0000-3375.1743j Ohm;
	constant_impedance_C 0.0000-3375.1743j Ohm;
}
object load {
	name bus477;
	phases ABC;
	nominal_voltage 219.393 kV;
	bustype PQ;
	voltage_A 230.2502-41.7021d kV;
	voltage_B 230.2502-161.7021d kV;
	voltage_C 230.2502+78.2979d kV;
	constant_impedance_A 0.0000-2052.0108j Ohm;
	constant_impedance_B 0.0000-2052.0108j Ohm;
	constant_impedance_C 0.0000-2052.0108j Ohm;
}
object load {
	name bus481;
	phases ABC;
	nominal_voltage 127.017 kV;
	bustype PQ;
	voltage_A 130.0962-47.8364d kV;
	voltage_B 130.0962-167.8364d kV;
	voltage_C 130.0962+72.1636d kV;
	constant_impedance_A 0.0000-2775.2294j Ohm;
	constant_impedance_B 0.0000-2775.2294j Ohm;
	constant_impedance_C 0.0000-2775.2294j Ohm;
}
object load {
	name bus483;
	phases ABC;
	nominal_voltage 127.017 kV;
	bustype PQ;
	voltage_A 129.9340-49.3516d kV;
	voltage_B 129.9340-169.3516d kV;
	voltage_C 129.9340+70.6484d kV;
	constant_power_A 19.0867+5.2000j MVA;
	constant_power_B 19.0867+5.2000j MVA;
	constant_power_C 19.0867+5.2000j MVA;
	constant_impedance_A 0.0000-14110.7872j Ohm;
	constant_impedance_B 0.0000-14110.7872j Ohm;
	constant_impedance_C 0.0000-14110.7872j Ohm;
}
object load {
	name bus486;
	phases ABC;
	nominal_voltage 86.603 kV;
	bustype PQ;
	voltage_A 87.8698+4.9668d kV;
	voltage_B 87.8698-115.0332d kV;
	voltage_C 87.8698+124.9668d kV;
	constant_power_A 2.3367+0.6667j MVA;
	constant_power_B 2.3367+0.6667j MVA;
	constant_power_C 2.3367+0.6667j MVA;
	constant_impedance_A 0.0000-51136.3636j Ohm;
	constant_impedance_B 0.0000-51136.3636j Ohm;
	constant_impedance_C 0.0000-51136.3636j Ohm;
}
object node {
	name bus489;
	phases ABC;
	nominal_voltage 127.017 kV;
	bustype PQ;
	voltage_A 128.6435-47.2131d kV;
	voltage_B 128.6435-167.2131d kV;
	voltage_C 128.6435+72.7869d kV;
}
object load {
	name bus490;
	phases ABC;
	nominal_voltage 127.017 kV;
	bustype PQ;
	voltage_A 131.6332-23.0438d kV;
	voltage_B 131.6332-143.0438d kV;
	voltage_C 131.6332+96.9562d kV;
	constant_power_A 6.8400+1.3333j MVA;
	constant_power_B 6.8400+1.3333j MVA;
	constant_power_C 6.8400+1.3333j MVA;
	constant_impedance_A 0.0000-17472.9242j Ohm;
	constant_impedance_B 0.0000-17472.9242j Ohm;
	constant_impedance_C 0.0000-17472.9242j Ohm;
}
object load {
	name bus496;
	phases ABC;
	nominal_voltage 86.603 kV;
	bustype PQ;
	voltage_A 88.2024+11.2596d kV;
	voltage_B 88.2024-108.7404d kV;
	voltage_C 88.2024+131.2596d kV;
	constant_impedance_A 0.0000-2241.0359j Ohm;
	constant_impedance_B 0.0000-2241.0359j Ohm;
	constant_impedance_C 0.0000-2241.0359j Ohm;
}
object load {
	name bus500;
	phases ABC;
	nominal_voltage 127.017 kV;
	bustype PQ;
	voltage_A 131.8398-15.0684d kV;
	voltage_B 131.8398-135.0684d kV;
	voltage_C 131.8398+104.9316d kV;
	constant_power_A 48.1333+11.8333j MVA;
	constant_power_B 48.1333+11.8333j MVA;
	constant_power_C 48.1333+11.8333j MVA;
	constant_impedance_A 0.0000-6318.5379j Ohm;
	constant_impedance_B 0.0000-6318.5379j Ohm;
	constant_impedance_C 0.0000-6318.5379j Ohm;
}
object load {
	name bus502;
	phases ABC;
	nominal_voltage 127.017 kV;
	bustype PQ;
	voltage_A 132.6020-6.6896d kV;
	voltage_B 132.6020-126.6896d kV;
	voltage_C 132.6020+113.3104d kV;
	constant_impedance_A 0.0000-24693.8776j Ohm;
	constant_impedance_B 0.0000-24693.8776j Ohm;
	constant_impedance_C 0.0000-24693.8776j Ohm;
}
object load {
	name bus506;
	phases ABC;
	nominal_voltage 219.393 kV;
	bustype PQ;
	voltage_A 233.1923-9.0760d kV;
	voltage_B 233.1923-129.0760d kV;
	voltage_C 233.1923+110.9240d kV;
	constant_impedance_A 0.0000-361000.0000j Ohm;
	constant_impedance_B 0.0000-361000.0000j Ohm;
	constant_impedance_C 0.0000-361000.0000j Ohm;
}
object load {
	name bus509;
	phases ABC;
	nominal_voltage 127.017 kV;
	bustype PQ;
	voltage_A 128.9691-60.2589d kV;
	voltage_B 128.9691+179.7411d kV;
	voltage_C 128.9691+59.7411d kV;
	constant_power_A 25.7633+2.3333j MVA;
	constant_power_B 25.7633+2.3333j MVA;
	constant_power_C 25.7633+2.3333j MVA;
	constant_impedance_A 0.0000-2750.0000j Ohm;
	constant_impedance_B 0.0000-2750.0000j Ohm;
	constant_impedance_C 0.0000-2750.0000j Ohm;
}
object load {
	name bus513;
	phases ABC;
	nominal_voltage 127.017 kV;
	bustype PQ;
	voltage_A 131.9532-7.4557d kV;
	voltage_B 131.9532-127.4557d kV;
	voltage_C 131.9532+112.5443d kV;
	constant_power_A 19.1533+5.7000j MVA;
	constant_power_B 19.1533+5.7000j MVA;
	constant_power_C 19.1533+5.7000j MVA;
	constant_impedance_A 0.0000-30062.1118j Ohm;
	constant_impedance_B 0.0000-30062.1118j Ohm;
	constant_impedance_C 0.0000-30062.1118j Ohm;
}
object node {
	name bus516;
	phases ABC;
	nominal_voltage 127.017 kV;
	bustype PQ;
	voltage_A 136.5184-33.5155d kV;
	voltage_B 136.5184-153.5155d kV;
	voltage_C 136.5184+86.4845d kV;
}
object load {
	name bus519;
	phases ABC;
	nominal_voltage 127.017 kV;
	bustype PQ;
	voltage_A 130.4131-49.8491d kV;
	voltage_B 130.4131-169.8491d kV;
	voltage_C 130.4131+70.1509d kV;
	constant_power_A 69.0667+3.1333j MVA;
	constant_power_B 69.0667+3.1333j MVA;
	constant_power_C 69.0667+3.1333j MVA;
	constant_impedance_A 0.0000-5518.8141j Ohm;
	constant_impedance_B 0.0000-5518.8141j Ohm;
	constant_impedance_C 0.0000-5518.8141j Ohm;
}
object load {
	name bus520;
	phases ABC;
	nominal_voltage 127.017 kV;
	bustype PQ;
	voltage_A 133.2253-27.2132d kV;
	voltage_B 133.2253-147.2132d kV;
	voltage_C 133.2253+92.7868d kV;
	constant_power_A 39.5000+6.8000j MVA;
	constant_power_B 39.5000+6.8000j MVA;
	constant_power_C 39.5000+6.8000j MVA;
	constant_impedance_A 0.0000-18832.6848j Ohm;
	constant_impedance_B 0.0000-18832.6848j Ohm;
	constant_impedance_C 0.0000-18832.6848j Ohm;
}
object load {
	name bus523;
	phases ABC;
	nominal_voltage 86.603 kV;
	bustype PQ;
	voltage_A 90.3486+7.2313d kV;
	voltage_B 90.3486-112.7687d kV;
	voltage_C 90.3486+127.2313d kV;
	constant_power_A 63.3000+24.9000j MVA;
	constant_power_B 63.3000+24.9000j MVA;
	constant_power_C 63.3000+24.9000j MVA;
	constant_impedance_A 0.0000-858.7786j Ohm;
	constant_impedance_B 0.0000-858.7786j Ohm;
	constant_impedance_C 0.0000-858.7786j Ohm;
}
object load {
	name bus527;
	phases ABC;
	nominal_voltage 127.017 kV;
	bustype PQ;
	voltage_A 128.8446-46.2358d kV;
	voltage_B 128.8446-166.2358d kV;
	voltage_C 128.8446+73.7642d kV;
	constant_power_A 92.5667+15.1333j MVA;
	constant_power_B 92.5667+15.1333j MVA;
	constant_power_C 92.5667+15.1333j MVA;
	constant_impedance_A 0.0000-69142.8571j Ohm;
	constant_impedance_B 0.0000-69142.8571j Ohm;
	constant_impedance_C 0.0000-69142.8571j Ohm;
}
object load {
	name bus536;
	phases ABC;
	nominal_voltage 219.393 kV;
	bustype PQ;
	voltage_A 232.4773-47.9714d kV;
	voltage_B 232.4773-167.9714d kV;
	voltage_C 232.4773+72.0286d kV;
	constant_power_A 29.2667-0.4667j MVA;
	constant_power_B 29.2667-0.4667j MVA;
	constant_power_C 29.2667-0.4667j MVA;
	constant_impedance_A 8.7871-4005.8232j Ohm;
	constant_impedance_B 8.7871-4005.8232j Ohm;
	constant_impedance_C 8.7871-4005.8232j Ohm;
}
object load {
	name bus539;
	phases ABC;
	nominal_voltage 86.603 kV;
	bustype PQ;
	voltage_A 87.7466+3.7625d kV;
	voltage_B 87.7466-116.2375d kV;
	voltage_C 87.7466+123.7625d kV;
	constant_power_A 19.3200+6.3000j MVA;
	constant_power_B 19.3200+6.3000j MVA;
	constant_power_C 19.3200+6.3000j MVA;
	constant_impedance_A 0.0000-1509.0543j Ohm;
	constant_impedance_B 0.0000-1509.0543j Ohm;
	constant_impedance_C 0.0000-1509.0543j Ohm;
}
object load {
	name bus544;
	phases ABC;
	nominal_voltage 219.393 kV;
	bustype PQ;
	voltage_A 227.9606-51.4416d kV;
	voltage_B 227.9606-171.4416d kV;
	voltage_C 227.9606+68.5584d kV;
	constant_power_A 26.5633+13.2000j MVA;
	constant_power_B 26.5633+13.2000j MVA;
	constant_power_C 26.5633+13.2000j MVA;
	constant_impedance_A 0.0000-7668.6139j Ohm;
	constant_impedance_B 0.0000-7668.6139j Ohm;
	constant_impedance_C 0.0000-7668.6139j Ohm;
}
object load {
	name bus548;
	phases ABC;
	nominal_voltage 63.509 kV;
	bustype PQ;
	voltage_A 65.6208+16.1424d kV;
	voltage_B 65.6208-103.8576d kV;
	voltage_C 65.6208+136.1424d kV;
	constant_power_A 10.3100+2.9667j MVA;
	constant_power_B 10.3100+2.9667j MVA;
	constant_power_C 10.3100+2.9667j MVA;
	constant_impedance_A 0.0000-26888.8889j Ohm;
	constant_impedance_B 0.0000-26888.8889j Ohm;
	constant_impedance_C 0.0000-26888.8889j Ohm;
}
object load {
	name bus549;
	phases ABC;
	nominal_voltage 127.017 kV;
	bustype PQ;
	voltage_A 136.0069-10.9974d kV;
	voltage_B 136.0069-130.9974d kV;
	voltage_C 136.0069+109.0026d kV;
	constant_impedance_A 0.0000-9398.0583j Ohm;
	constant_impedance_B 0.0000-9398.0583j Ohm;
	constant_impedance_C 0.0000-9398.0583j Ohm;
}
object load {
	name bus550;
	phases ABC;
	nominal_voltage 127.017 kV;
	bustype PQ;
	voltage_A 132.1029-45.1922d kV;
	voltage_B 132.1029-165.1922d kV;
	voltage_C 132.1029+74.8078d kV;
	constant_impedance_A 0.0000-4840.0000j Ohm;
	constant_impedance_B 0.0000-4840.0000j Ohm;
	constant_impedance_C 0.0000-4840.0000j Ohm;
}
object load {
...